-------------------------------------------------------
          Amber 22 SANDER                              2022
          -------------------------------------------------------

  [-O]verwriting output

File Assignments:

 Here is the input file:

MD Generalise Born, no cut off
 &cntrl
  imin = 0,
  igb = 5, gbsa = 1, extdiel = 112.8, ntpr = 1000, ntwx = 1000, ntwr = 1000,
  ntt = 3, gamma_ln = 1.0, ig = -1, nscm = 500,
  tempi = 228.0, temp0 = 228.0,
  nstlim = 2500000, dt = 0.002, ntc = 2, ntf = 2,
  cut = 9999.0, plumed = 1, plumedfile = 'plumed.dat'
 /

 PLUMED is on

 PLUMEDfile is plumed.dat

--------------------------------------------------------------------------------
   1.  RESOURCE   USE:
--------------------------------------------------------------------------------

 NATOM  =     174 NTYPES =       8 NBONH =      86 MBONA  =      87
 NTHETH =     190 MTHETA =     119 NPHIH =     375 MPHIA  =     296
 NHPARM =       0 NPARM  =       0 NNB   =     917 NRES   =      15
 NBONA  =      87 NTHETA =     119 NPHIA =     296 NUMBND =      12
 NUMANG =      26 NPTRA  =      24 NATYP =      10 NPHB   =       0
 IFBOX  =       0 NMXRS  =      17 IFCAP =       0 NEXTRA =       0
 NCOPY  =       0

 Implicit solvent radii are H(N)-modified Bondi radii (mbondi2)

Note: ig = -1. Setting random seed to   113159 based on wallclock time in microseconds.

--------------------------------------------------------------------------------
   2.  CONTROL  DATA  FOR  THE  RUN
--------------------------------------------------------------------------------

default_name

General flags:
     imin    =       0, nmropt  =       0

Nature and format of input:
     ntx     =       1, irest   =       0, ntrx    =       1

Nature and format of output:
     ntxo    =       2, ntpr    =    1000, ntrx    =       1, ntwr    =    1000
     iwrap   =       0, ntwx    =    1000, ntwv    =       0, ntwe    =       0
     ioutfm  =       1, ntwprt  =       0, idecomp =       0, rbornstat=      0

Potential function:
     ntf     =       2, ntb     =       0, igb     =       5, nsnb    =      25
     ipol    =       0, gbsa    =       1, iesp    =       0
     dielc   =   1.00000, cut     =9999.00000, intdiel =   1.00000
     saltcon =   0.00000, offset  =   0.09000, gbalpha=    1.00000
     gbbeta  =   0.80000, gbgamma =   4.85000, surften =   0.00500
     rdt     =   0.00000, rgbmax  =  25.00000  extdiel = 112.80000
     alpb  =        0

Frozen or restrained atoms:
     ibelly  =       0, ntr     =       0

Molecular dynamics:
     nstlim  =   2500000, nscm    =       500, nrespa  =         1
     t       =   0.00000, dt      =   0.00200, vlimit  =  20.00000

Langevin dynamics temperature regulation:
     ig      =  113159
     temp0   = 228.00000, tempi   = 228.00000, gamma_ln=   1.00000

SHAKE:
     ntc     =       2, jfastw  =       0
     tol     =   0.00001

--------------------------------------------------------------------------------
   3.  ATOMIC COORDINATES AND VELOCITIES
--------------------------------------------------------------------------------

default_name
 begin time read from input coords =     0.000 ps

 Number of triangulated 3-point waters found:        0

--------------------------------------------------------------------------------
   4.  RESULTS
 NSTEP =        0   TIME(PS) =       0.000  TEMP(K) =   271.62  PRESS =     0.0
 Etot   =      -192.1577  EKtot   =       117.6690  EPtot      =      -309.8268
 BOND   =         4.3492  ANGLE   =         9.9566  DIHED      =       114.2759
 1-4 NB =        26.6862  1-4 EEL =       948.0375  VDWAALS    =       -26.6577
 EELEC  =     -1132.2064  EGB     =      -263.3198  RESTRAINT  =         0.0000
 ESURF=         9.0518
 ------------------------------------------------------------------------------

      A V E R A G E S   O V E R 2500000 S T E P S

 NSTEP =  2500000   TIME(PS) =    5000.000  TEMP(K) =   229.76  PRESS =     0.0
 Etot   =      -132.8317  EKtot   =        99.5322  EPtot      =      -232.3639
 BOND   =        29.5633  ANGLE   =        68.3177  DIHED      =       128.6752
 1-4 NB =        31.6746  1-4 EEL =       926.1352  VDWAALS    =       -37.9876
 EELEC  =     -1111.4882  EGB     =      -275.1982  RESTRAINT  =         0.0000
 ESURF=         7.9439
 ------------------------------------------------------------------------------

      R M S  F L U C T U A T I O N S

 NSTEP =  2500000   TIME(PS) =    5000.000  TEMP(K) =    15.65  PRESS =     0.0
 Etot   =        12.0078  EKtot   =         6.7775  EPtot      =         9.9367
 BOND   =         4.2072  ANGLE   =         6.1069  DIHED      =         3.7473
 1-4 NB =         2.3749  1-4 EEL =         9.1144  VDWAALS    =         6.7311
 EELEC  =        14.1435  EGB     =        11.1590  RESTRAINT  =         0.0000
 ESURF=         0.4578
 ------------------------------------------------------------------------------
