-------------------------------------------------------
          Amber 22 SANDER                              2022
          -------------------------------------------------------

  [-O]verwriting output

File Assignments:

 Here is the input file:

MD Generalise Born, no cut off
 &cntrl
  imin = 0,
  igb = 5, gbsa = 1, extdiel = 78.4, ntpr = 1000, ntwx = 1000, ntwr = 1000,
  ntt = 3, gamma_ln = 1.0, ig = -1, nscm = 500,
  tempi = 298.0, temp0 = 298.0,
  nstlim = 2500000, dt = 0.002, ntc = 2, ntf = 2,
  cut = 9999.0, plumed = 1, plumedfile = 'plumed.dat'
 /

 PLUMED is on

 PLUMEDfile is plumed.dat

--------------------------------------------------------------------------------
   1.  RESOURCE   USE:
--------------------------------------------------------------------------------

 NATOM  =     174 NTYPES =       8 NBONH =      86 MBONA  =      87
 NTHETH =     190 MTHETA =     119 NPHIH =     375 MPHIA  =     296
 NHPARM =       0 NPARM  =       0 NNB   =     917 NRES   =      15
 NBONA  =      87 NTHETA =     119 NPHIA =     296 NUMBND =      12
 NUMANG =      26 NPTRA  =      24 NATYP =      10 NPHB   =       0
 IFBOX  =       0 NMXRS  =      17 IFCAP =       0 NEXTRA =       0
 NCOPY  =       0

 Implicit solvent radii are H(N)-modified Bondi radii (mbondi2)

Note: ig = -1. Setting random seed to   236505 based on wallclock time in microseconds.

--------------------------------------------------------------------------------
   2.  CONTROL  DATA  FOR  THE  RUN
--------------------------------------------------------------------------------

default_name

General flags:
     imin    =       0, nmropt  =       0

Nature and format of input:
     ntx     =       1, irest   =       0, ntrx    =       1

Nature and format of output:
     ntxo    =       2, ntpr    =    1000, ntrx    =       1, ntwr    =    1000
     iwrap   =       0, ntwx    =    1000, ntwv    =       0, ntwe    =       0
     ioutfm  =       1, ntwprt  =       0, idecomp =       0, rbornstat=      0

Potential function:
     ntf     =       2, ntb     =       0, igb     =       5, nsnb    =      25
     ipol    =       0, gbsa    =       1, iesp    =       0
     dielc   =   1.00000, cut     =9999.00000, intdiel =   1.00000
     saltcon =   0.00000, offset  =   0.09000, gbalpha=    1.00000
     gbbeta  =   0.80000, gbgamma =   4.85000, surften =   0.00500
     rdt     =   0.00000, rgbmax  =  25.00000  extdiel =  78.40000
     alpb  =        0

Frozen or restrained atoms:
     ibelly  =       0, ntr     =       0

Molecular dynamics:
     nstlim  =   2500000, nscm    =       500, nrespa  =         1
     t       =   0.00000, dt      =   0.00200, vlimit  =  20.00000

Langevin dynamics temperature regulation:
     ig      =  236505
     temp0   = 298.00000, tempi   = 298.00000, gamma_ln=   1.00000

SHAKE:
     ntc     =       2, jfastw  =       0
     tol     =   0.00001

--------------------------------------------------------------------------------
   3.  ATOMIC COORDINATES AND VELOCITIES
--------------------------------------------------------------------------------

default_name
 begin time read from input coords =     0.000 ps

 Number of triangulated 3-point waters found:        0

--------------------------------------------------------------------------------
   4.  RESULTS
 NSTEP =        0   TIME(PS) =       0.000  TEMP(K) =   362.46  PRESS =     0.0
 Etot   =      -151.7729  EKtot   =       157.0204  EPtot      =      -308.7933
 BOND   =         4.3492  ANGLE   =         9.9566  DIHED      =       114.2759
 1-4 NB =        26.6862  1-4 EEL =       948.0375  VDWAALS    =       -26.6577
 EELEC  =     -1132.2064  EGB     =      -262.2864  RESTRAINT  =         0.0000
 ESURF=         9.0518
 ------------------------------------------------------------------------------

      A V E R A G E S   O V E R 2500000 S T E P S

 NSTEP =  2500000   TIME(PS) =    5000.000  TEMP(K) =   299.15  PRESS =     0.0
 Etot   =       -79.8134  EKtot   =       129.5943  EPtot      =      -209.4077
 BOND   =        35.3306  ANGLE   =        84.0721  DIHED      =       135.7073
 1-4 NB =        34.4493  1-4 EEL =       923.1626  VDWAALS    =       -45.2640
 EELEC  =     -1110.4448  EGB     =      -273.8415  RESTRAINT  =         0.0000
 ESURF=         7.4208
 ------------------------------------------------------------------------------

      R M S  F L U C T U A T I O N S

 NSTEP =  2500000   TIME(PS) =    5000.000  TEMP(K) =    20.23  PRESS =     0.0
 Etot   =        13.9973  EKtot   =         8.7620  EPtot      =        10.8296
 BOND   =         5.1256  ANGLE   =         7.4911  DIHED      =         4.5169
 1-4 NB =         2.6991  1-4 EEL =         8.3232  VDWAALS    =         5.6154
 EELEC  =        14.4830  EGB     =        11.7832  RESTRAINT  =         0.0000
 ESURF=         0.3426
 ------------------------------------------------------------------------------
