-------------------------------------------------------
          Amber 22 SANDER                              2022
          -------------------------------------------------------

  [-O]verwriting output

File Assignments:

 Here is the input file:

MD Generalise Born, no cut off
 &cntrl
  imin = 0,
  igb = 5, gbsa = 1, extdiel = 62.3, ntpr = 1000, ntwx = 1000, ntwr = 1000,
  ntt = 3, gamma_ln = 1.0, ig = -1, nscm = 500,
  tempi = 348.0, temp0 = 348.0,
  nstlim = 2500000, dt = 0.002, ntc = 2, ntf = 2,
  cut = 9999.0, plumed = 1, plumedfile = 'plumed.dat'
 /

 PLUMED is on

 PLUMEDfile is plumed.dat

--------------------------------------------------------------------------------
   1.  RESOURCE   USE:
--------------------------------------------------------------------------------

 NATOM  =     174 NTYPES =       8 NBONH =      86 MBONA  =      87
 NTHETH =     190 MTHETA =     119 NPHIH =     375 MPHIA  =     296
 NHPARM =       0 NPARM  =       0 NNB   =     917 NRES   =      15
 NBONA  =      87 NTHETA =     119 NPHIA =     296 NUMBND =      12
 NUMANG =      26 NPTRA  =      24 NATYP =      10 NPHB   =       0
 IFBOX  =       0 NMXRS  =      17 IFCAP =       0 NEXTRA =       0
 NCOPY  =       0

 Implicit solvent radii are H(N)-modified Bondi radii (mbondi2)

Note: ig = -1. Setting random seed to   780483 based on wallclock time in microseconds.

--------------------------------------------------------------------------------
   2.  CONTROL  DATA  FOR  THE  RUN
--------------------------------------------------------------------------------

default_name

General flags:
     imin    =       0, nmropt  =       0

Nature and format of input:
     ntx     =       1, irest   =       0, ntrx    =       1

Nature and format of output:
     ntxo    =       2, ntpr    =    1000, ntrx    =       1, ntwr    =    1000
     iwrap   =       0, ntwx    =    1000, ntwv    =       0, ntwe    =       0
     ioutfm  =       1, ntwprt  =       0, idecomp =       0, rbornstat=      0

Potential function:
     ntf     =       2, ntb     =       0, igb     =       5, nsnb    =      25
     ipol    =       0, gbsa    =       1, iesp    =       0
     dielc   =   1.00000, cut     =9999.00000, intdiel =   1.00000
     saltcon =   0.00000, offset  =   0.09000, gbalpha=    1.00000
     gbbeta  =   0.80000, gbgamma =   4.85000, surften =   0.00500
     rdt     =   0.00000, rgbmax  =  25.00000  extdiel =  62.30000
     alpb  =        0

Frozen or restrained atoms:
     ibelly  =       0, ntr     =       0

Molecular dynamics:
     nstlim  =   2500000, nscm    =       500, nrespa  =         1
     t       =   0.00000, dt      =   0.00200, vlimit  =  20.00000

Langevin dynamics temperature regulation:
     ig      =  780483
     temp0   = 348.00000, tempi   = 348.00000, gamma_ln=   1.00000

SHAKE:
     ntc     =       2, jfastw  =       0
     tol     =   0.00001

--------------------------------------------------------------------------------
   3.  ATOMIC COORDINATES AND VELOCITIES
--------------------------------------------------------------------------------

default_name
 begin time read from input coords =     0.000 ps

 Number of triangulated 3-point waters found:        0

--------------------------------------------------------------------------------
   4.  RESULTS
 NSTEP =        0   TIME(PS) =       0.000  TEMP(K) =   424.98  PRESS =     0.0
 Etot   =      -123.8118  EKtot   =       184.1058  EPtot      =      -307.9176
 BOND   =         4.3492  ANGLE   =         9.9566  DIHED      =       114.2759
 1-4 NB =        26.6862  1-4 EEL =       948.0375  VDWAALS    =       -26.6577
 EELEC  =     -1132.2064  EGB     =      -261.4106  RESTRAINT  =         0.0000
 ESURF=         9.0518
 ------------------------------------------------------------------------------

      A V E R A G E S   O V E R 2500000 S T E P S

 NSTEP =  2500000   TIME(PS) =    5000.000  TEMP(K) =   349.42  PRESS =     0.0
 Etot   =       -31.8515  EKtot   =       151.3725  EPtot      =      -183.2241
 BOND   =        40.1879  ANGLE   =        96.1555  DIHED      =       138.9958
 1-4 NB =        35.1284  1-4 EEL =       923.3338  VDWAALS    =       -42.5256
 EELEC  =     -1110.7718  EGB     =      -271.2299  RESTRAINT  =         0.0000
 ESURF=         7.5017
 ------------------------------------------------------------------------------

      R M S  F L U C T U A T I O N S

 NSTEP =  2500000   TIME(PS) =    5000.000  TEMP(K) =    23.75  PRESS =     0.0
 Etot   =        15.8850  EKtot   =        10.2880  EPtot      =        12.0824
 BOND   =         5.8861  ANGLE   =         8.5913  DIHED      =         4.9159
 1-4 NB =         2.9437  1-4 EEL =         8.9407  VDWAALS    =         5.4547
 EELEC  =        16.0479  EGB     =        12.8401  RESTRAINT  =         0.0000
 ESURF=         0.3442
 ------------------------------------------------------------------------------
